CM ELT on 96 inch diameter rounded ground plane
CE
GW     1    14       .0       .0      .0       .0       .0      7.0      .010
GW     2    28       .0       .0     7.0       .0       .0      22.75     .035
GW     3     1       .25       .0      .0       .25       .0       0.5     .010
GW     4     1      -.25       .0      .0      -.25       .0       0.5     .010
GW     5     2      -.25       .0      .5       .25       .0       0.5     .010
GW     6     2       .0       -.25     .5       .0        .25      0.5     .010

GW   500    10    -48.0    -10.0     0.0    -48.0     10.0      0.0      .01
GW   501    16    -46.0    -16.0     0.0    -46.0     16.0      0.0      .01
GW   502    20    -44.0    -20.0     0.0    -44.0     20.0      0.0      .01
GW   503    24    -42.0    -24.0     0.0    -42.0     24.0      0.0      .01
GW   504    26    -40.0    -26.0     0.0    -40.0     26.0      0.0      .01
GW   505    30    -38.0    -30.0     0.0    -38.0     30.0      0.0      .01
GW   506    32    -36.0    -32.0     0.0    -36.0     32.0      0.0      .01
GW   507    34    -34.0    -34.0     0.0    -34.0     34.0      0.0      .01
GW   508    36    -32.0    -36.0     0.0    -32.0     36.0      0.0      .01
GW   509    38    -30.0    -38.0     0.0    -30.0     38.0      0.0      .01
GW   510    40    -28.0    -40.0     0.0    -28.0     40.0      0.0      .01
GW   511    42    -26.0    -42.0     0.0    -26.0     42.0      0.0      .01
GW   512    42    -24.0    -42.0     0.0    -24.0     42.0      0.0      .01
GW   513    44    -22.0    -44.0     0.0    -22.0     44.0      0.0      .01
GW   514    44    -20.0    -44.0     0.0    -20.0     44.0      0.0      .01
GW   515    46    -18.0    -46.0     0.0    -18.0     46.0      0.0      .01
GW   516    46    -16.0    -46.0     0.0    -16.0     46.0      0.0      .01
GW   517    46    -14.0    -46.0     0.0    -14.0     46.0      0.0      .01
GW   518    46    -12.0    -46.0     0.0    -12.0     46.0      0.0      .01
GW   519    48    -10.0    -48.0     0.0    -10.0     48.0      0.0      .01
GW   520    48    -8.0     -48.0     0.0    -8.0      48.0      0.0      .01
GW   521    48    -6.0     -48.0     0.0    -6.0      48.0      0.0      .01
GW   522    48    -4.0     -48.0     0.0    -4.0      48.0      0.0      .01
GW   523    96    -2.0     -48.0     0.0    -2.0      48.0      0.0      .01

GW   524    96     0.0     -48.0     0.0     0.0      48.0      0.0      .01

GW   525    96     2.0     -48.0     0.0     2.0      48.0      0.0      .01
GW   526    48     4.0     -48.0     0.0     4.0      48.0      0.0      .01
GW   527    48     6.0     -48.0     0.0     6.0      48.0      0.0      .01
GW   528    48     8.0     -48.0     0.0     8.0      48.0      0.0      .01
GW   529    48    10.0     -48.0     0.0     10.0     48.0      0.0      .01
GW   530    46    12.0     -46.0     0.0     12.0     46.0      0.0      .01
GW   531    46    14.0     -46.0     0.0     14.0     46.0      0.0      .01
GW   532    46    16.0     -46.0     0.0     16.0     46.0      0.0      .01
GW   533    46    18.0     -46.0     0.0     18.0     46.0      0.0      .01
GW   534    44    20.0     -44.0     0.0     20.0     44.0      0.0      .01
GW   535    44    22.0     -44.0     0.0     22.0     44.0      0.0      .01
GW   536    42    24.0     -42.0     0.0     24.0     42.0      0.0      .01
GW   537    42    26.0     -42.0     0.0     26.0     42.0      0.0      .01
GW   538    40    28.0     -40.0     0.0     28.0     40.0      0.0      .01
GW   539    38    30.0     -38.0     0.0     30.0     38.0      0.0      .01
GW   540    36    32.0     -36.0     0.0     32.0     36.0      0.0      .01
GW   541    34    34.0     -34.0     0.0     34.0     34.0      0.0      .01
GW   542    32    36.0     -32.0     0.0     36.0     32.0      0.0      .01
GW   543    30    38.0     -30.0     0.0     38.0     30.0      0.0      .01
GW   544    26    40.0     -26.0     0.0     40.0     26.0      0.0      .01
GW   545    24    42.0     -24.0     0.0     42.0     24.0      0.0      .01
GW   546    20    44.0     -20.0     0.0     44.0     20.0      0.0      .01
GW   547    16    46.0     -16.0     0.0     46.0     16.0      0.0      .01
GW   548    10    48.0     -10.0     0.0     48.0     10.0      0.0      .01

GW   551    10    -10.0    -48.0     0.0     10.0    -48.0      0.0      .01
GW   552    18    -18.0    -46.0     0.0     18.0    -46.0      0.0      .01
GW   553    22    -22.0    -44.0     0.0     22.0    -44.0      0.0      .01
GW   554    26    -26.0    -42.0     0.0     26.0    -42.0      0.0      .01
GW   555    28    -28.0    -40.0     0.0     28.0    -40.0      0.0      .01
GW   556    30    -30.0    -38.0     0.0     30.0    -38.0      0.0      .01
GW   557    32    -32.0    -36.0     0.0     32.0    -36.0      0.0      .01
GW   558    34    -34.0    -34.0     0.0     34.0    -34.0      0.0      .01
GW   559    36    -36.0    -32.0     0.0     36.0    -32.0      0.0      .01
GW   560    38    -38.0    -30.0     0.0     38.0    -30.0      0.0      .01
GW   561    38    -38.0    -28.0     0.0     38.0    -28.0      0.0      .01
GW   562    40    -40.0    -26.0     0.0     40.0    -26.0      0.0      .01
GW   563    42    -42.0    -24.0     0.0     42.0    -24.0      0.0      .01
GW   564    42    -42.0    -22.0     0.0     42.0    -22.0      0.0      .01
GW   565    44    -44.0    -20.0     0.0     44.0    -20.0      0.0      .01
GW   566    44    -44.0    -18.0     0.0     44.0    -18.0      0.0      .01
GW   567    46    -46.0    -16.0     0.0     46.0    -16.0      0.0      .01
GW   568    46    -46.0    -14.0     0.0     46.0    -14.0      0.0      .01
GW   569    46    -46.0    -12.0     0.0     46.0    -12.0      0.0      .01
GW   570    48    -48.0    -10.0     0.0     48.0    -10.0      0.0      .01
GW   571    48    -48.0     -8.0     0.0     48.0    -8.0      0.0      .01
GW   572    48    -48.0     -6.0     0.0     48.0    -6.0      0.0      .01
GW   573    48    -48.0     -4.0     0.0     48.0    -4.0      0.0      .01
GW   574    96    -48.0     -2.0     0.0     48.0    -2.0      0.0      .01

GW   7      46    -48.0      0.0     0.0     -2.0     0.0      0.0      .010
GW   8      16     -2.0      0.0     0.0      2.0     0.0      0.0      .01
GW   9      46      2.0      0.0     0.0     48.0     0.0      0.0      .010
GW   10      4     -2.0      1.0     0.0      2.0     1.0      0.0      .010
GW   11      4     -2.0     -1.0     0.0      2.0    -1.0      0.0      .010
GW   12      4      1.0     -2.0     0.0      1.0     2.0      0.0      .010
GW   13      4     -1.0     -2.0     0.0     -1.0     2.0      0.0      .010

GW   576    96    -48.0      2.0     0.0     48.0     2.0      0.0      .01
GW   577    48    -48.0      4.0     0.0     48.0     4.0      0.0      .01
GW   578    48    -48.0      6.0     0.0     48.0     6.0      0.0      .01
GW   579    48    -48.0      8.0     0.0     48.0     8.0      0.0      .01
GW   580    48    -48.0     10.0     0.0     48.0     10.0      0.0      .01
GW   581    46    -46.0     12.0     0.0     46.0     12.0      0.0      .01
GW   582    46    -46.0     14.0     0.0     46.0     14.0      0.0      .01
GW   583    46    -46.0     16.0     0.0     46.0     16.0      0.0      .01
GW   584    44    -44.0     18.0     0.0     44.0     18.0      0.0      .01
GW   585    44    -44.0     20.0     0.0     44.0     20.0      0.0      .01
GW   586    42    -42.0     22.0     0.0     42.0     22.0      0.0      .01
GW   587    42    -42.0     24.0     0.0     42.0     24.0      0.0      .01
GW   588    40    -40.0     26.0     0.0     40.0     26.0      0.0      .01
GW   589    38    -38.0     28.0     0.0     38.0     28.0      0.0      .01
GW   590    38    -38.0     30.0     0.0     38.0     30.0      0.0      .01
GW   591    36    -36.0     32.0     0.0     36.0     32.0      0.0      .01
GW   592    34    -34.0     34.0     0.0     34.0     34.0      0.0      .01
GW   593    32    -32.0     36.0     0.0     32.0     36.0      0.0      .01
GW   594    30    -30.0     38.0     0.0     30.0     38.0      0.0      .01
GW   595    28    -28.0     40.0     0.0     28.0     40.0      0.0      .01
GW   596    26    -26.0     42.0     0.0     26.0     42.0      0.0      .01
GW   597    22    -22.0     44.0     0.0     22.0     44.0      0.0      .01
GW   598    18    -18.0     46.0     0.0     18.0     46.0      0.0      .01
GW   599    10    -10.0     48.0     0.0     10.0     48.0      0.0      .01

GW   600    1      .25       .0       .5      .25       .0      1.0     .010
GW   601    1      .25       .0      1.0      .25       .0      1.5     .010
GW   602    1      .25       .0      1.5      .25       .0      2.0     .010
GW   603    1      .25       .0      2.0      .25       .0      2.5     .010
GW   604    1      .25       .0      2.5      .25       .0      3.0     .010
GW   605    1      .25       .0      3.0      .25       .0      3.5     .010
GW   606    1      .25       .0      3.5      .25       .0      4.0     .010
GW   607    1      .25       .0      4.0      .25       .0      4.5     .010
GW   608    1      .25       .0      4.5      .25       .0      5.0     .010
GW   609    1      .25       .0      5.0      .25       .0      5.5     .010
GW   610    1      .25       .0      5.5      .25       .0      6.0     .010
GW   611    1      .25       .0      6.0      .25       .0      6.5     .010
GW   612    1      .25       .0      6.5      .25       .0      7.0     .010  
GW   613    1  .216506     .125       .5  .216506     .125      1.0     .010
GW   614    1  .216506     .125      1.0  .216506     .125      1.5     .010
GW   615    1  .216506     .125      1.5  .216506     .125      2.0     .010
GW   616    1  .216506     .125      2.0  .216506     .125      2.5     .010
GW   617    1  .216506     .125      2.5  .216506     .125      3.0     .010
GW   618    1  .216506     .125      3.0  .216506     .125      3.5     .010
GW   619    1  .216506     .125      3.5  .216506     .125      4.0     .010
GW   620    1  .216506     .125      4.0  .216506     .125      4.5     .010
GW   621    1  .216506     .125      4.5  .216506     .125      5.0     .010
GW   622    1  .216506     .125      5.0  .216506     .125      5.5     .010
GW   623    1  .216506     .125      5.5  .216506     .125      6.0     .010
GW   624    1  .216506     .125      6.0  .216506     .125      6.5     .010
GW   625    1  .216506     .125      6.5  .216506     .125      7.0     .010  
GW   626    1     .125  .216506       .5     .125  .216506      1.0     .010
GW   627    1     .125  .216506      1.0     .125  .216506      1.5     .010
GW   628    1     .125  .216506      1.5     .125  .216506      2.0     .010
GW   629    1     .125  .216506      2.0     .125  .216506      2.5     .010
GW   630    1     .125  .216506      2.5     .125  .216506      3.0     .010
GW   631    1     .125  .216506      3.0     .125  .216506      3.5     .010
GW   632    1     .125  .216506      3.5     .125  .216506      4.0     .010
GW   633    1     .125  .216506      4.0     .125  .216506      4.5     .010
GW   634    1     .125  .216506      4.5     .125  .216506      5.0     .010
GW   635    1     .125  .216506      5.0     .125  .216506      5.5     .010
GW   636    1     .125  .216506      5.5     .125  .216506      6.0     .010
GW   637    1     .125  .216506      6.0     .125  .216506      6.5     .010
GW   638    1     .125  .216506      6.5     .125  .216506      7.0     .010  
GW   639    1       .0      .25       .5       .0      .25      1.0     .010
GW   640    1       .0      .25      1.0       .0      .25      1.5     .010
GW   641    1       .0      .25      1.5       .0      .25      2.0     .010
GW   642    1       .0      .25      2.0       .0      .25      2.5     .010
GW   643    1       .0      .25      2.5       .0      .25      3.0     .010
GW   644    1       .0      .25      3.0       .0      .25      3.5     .010
GW   645    1       .0      .25      3.5       .0      .25      4.0     .010
GW   646    1       .0      .25      4.0       .0      .25      4.5     .010
GW   647    1       .0      .25      4.5       .0      .25      5.0     .010
GW   648    1       .0      .25      5.0       .0      .25      5.5     .010
GW   649    1       .0      .25      5.5       .0      .25      6.0     .010
GW   650    1       .0      .25      6.0       .0      .25      6.5     .010
GW   651    1       .0      .25      6.5       .0      .25      7.0     .010  
GW   652    1    -.125  .216506       .5    -.125  .216506      1.0     .010
GW   653    1    -.125  .216506      1.0    -.125  .216506      1.5     .010
GW   654    1    -.125  .216506      1.5    -.125  .216506      2.0     .010
GW   655    1    -.125  .216506      2.0    -.125  .216506      2.5     .010
GW   656    1    -.125  .216506      2.5    -.125  .216506      3.0     .010
GW   657    1    -.125  .216506      3.0    -.125  .216506      3.5     .010
GW   658    1    -.125  .216506      3.5    -.125  .216506      4.0     .010
GW   659    1    -.125  .216506      4.0    -.125  .216506      4.5     .010
GW   660    1    -.125  .216506      4.5    -.125  .216506      5.0     .010
GW   661    1    -.125  .216506      5.0    -.125  .216506      5.5     .010
GW   662    1    -.125  .216506      5.5    -.125  .216506      6.0     .010
GW   663    1    -.125  .216506      6.0    -.125  .216506      6.5     .010
GW   664    1    -.125  .216506      6.5    -.125  .216506      7.0     .010  
GW   665    1 -.216506     .125       .5 -.216506     .125      1.0     .010
GW   666    1 -.216506     .125      1.0 -.216506     .125      1.5     .010
GW   667    1 -.216506     .125      1.5 -.216506     .125      2.0     .010
GW   668    1 -.216506     .125      2.0 -.216506     .125      2.5     .010
GW   669    1 -.216506     .125      2.5 -.216506     .125      3.0     .010
GW   670    1 -.216506     .125      3.0 -.216506     .125      3.5     .010
GW   671    1 -.216506     .125      3.5 -.216506     .125      4.0     .010
GW   672    1 -.216506     .125      4.0 -.216506     .125      4.5     .010
GW   673    1 -.216506     .125      4.5 -.216506     .125      5.0     .010
GW   674    1 -.216506     .125      5.0 -.216506     .125      5.5     .010
GW   675    1 -.216506     .125      5.5 -.216506     .125      6.0     .010
GW   676    1 -.216506     .125      6.0 -.216506     .125      6.5     .010
GW   677    1 -.216506     .125      6.5 -.216506     .125      7.0     .010  
GW   678    1     -.25       .0       .5     -.25       .0      1.0     .010
GW   679    1     -.25       .0      1.0     -.25       .0      1.5     .010
GW   680    1     -.25       .0      1.5     -.25       .0      2.0     .010
GW   681    1     -.25       .0      2.0     -.25       .0      2.5     .010
GW   682    1     -.25       .0      2.5     -.25       .0      3.0     .010
GW   683    1     -.25       .0      3.0     -.25       .0      3.5     .010
GW   684    1     -.25       .0      3.5     -.25       .0      4.0     .010
GW   685    1     -.25       .0      4.0     -.25       .0      4.5     .010
GW   686    1     -.25       .0      4.5     -.25       .0      5.0     .010
GW   687    1     -.25       .0      5.0     -.25       .0      5.5     .010
GW   688    1     -.25       .0      5.5     -.25       .0      6.0     .010
GW   689    1     -.25       .0      6.0     -.25       .0      6.5     .010
GW   690    1     -.25       .0      6.5     -.25       .0      7.0     .010  
GW   691    1 -.216506    -.125       .5 -.216506    -.125      1.0     .010
GW   692    1 -.216506    -.125      1.0 -.216506    -.125      1.5     .010
GW   693    1 -.216506    -.125      1.5 -.216506    -.125      2.0     .010
GW   694    1 -.216506    -.125      2.0 -.216506    -.125      2.5     .010
GW   695    1 -.216506    -.125      2.5 -.216506    -.125      3.0     .010
GW   696    1 -.216506    -.125      3.0 -.216506    -.125      3.5     .010
GW   697    1 -.216506    -.125      3.5 -.216506    -.125      4.0     .010
GW   698    1 -.216506    -.125      4.0 -.216506    -.125      4.5     .010
GW   699    1 -.216506    -.125      4.5 -.216506    -.125      5.0     .010
GW   700    1 -.216506    -.125      5.0 -.216506    -.125      5.5     .010
GW   701    1 -.216506    -.125      5.5 -.216506    -.125      6.0     .010
GW   702    1 -.216506    -.125      6.0 -.216506    -.125      6.5     .010
GW   703    1 -.216506    -.125      6.5 -.216506    -.125      7.0     .010  
GW   704    1    -.125 -.216506       .5    -.125 -.216506      1.0     .010
GW   705    1    -.125 -.216506      1.0    -.125 -.216506      1.5     .010
GW   706    1    -.125 -.216506      1.5    -.125 -.216506      2.0     .010
GW   707    1    -.125 -.216506      2.0    -.125 -.216506      2.5     .010
GW   708    1    -.125 -.216506      2.5    -.125 -.216506      3.0     .010
GW   709    1    -.125 -.216506      3.0    -.125 -.216506      3.5     .010
GW   710    1    -.125 -.216506      3.5    -.125 -.216506      4.0     .010
GW   711    1    -.125 -.216506      4.0    -.125 -.216506      4.5     .010
GW   712    1    -.125 -.216506      4.5    -.125 -.216506      5.0     .010
GW   713    1    -.125 -.216506      5.0    -.125 -.216506      5.5     .010
GW   714    1    -.125 -.216506      5.5    -.125 -.216506      6.0     .010
GW   715    1    -.125 -.216506      6.0    -.125 -.216506      6.5     .010
GW   716    1    -.125 -.216506      6.5    -.125 -.216506      7.0     .010  
GW   717    1       .0     -.25       .5       .0     -.25      1.0     .010
GW   718    1       .0     -.25      1.0       .0     -.25      1.5     .010
GW   719    1       .0     -.25      1.5       .0     -.25      2.0     .010
GW   720    1       .0     -.25      2.0       .0     -.25      2.5     .010
GW   721    1       .0     -.25      2.5       .0     -.25      3.0     .010
GW   722    1       .0     -.25      3.0       .0     -.25      3.5     .010
GW   723    1       .0     -.25      3.5       .0     -.25      4.0     .010
GW   724    1       .0     -.25      4.0       .0     -.25      4.5     .010
GW   725    1       .0     -.25      4.5       .0     -.25      5.0     .010
GW   726    1       .0     -.25      5.0       .0     -.25      5.5     .010
GW   727    1       .0     -.25      5.5       .0     -.25      6.0     .010
GW   728    1       .0     -.25      6.0       .0     -.25      6.5     .010
GW   729    1       .0     -.25      6.5       .0     -.25      7.0     .010  
GW   730    1     .125 -.216506       .5     .125 -.216506      1.0     .010
GW   731    1     .125 -.216506      1.0     .125 -.216506      1.5     .010
GW   732    1     .125 -.216506      1.5     .125 -.216506      2.0     .010
GW   733    1     .125 -.216506      2.0     .125 -.216506      2.5     .010
GW   734    1     .125 -.216506      2.5     .125 -.216506      3.0     .010
GW   735    1     .125 -.216506      3.0     .125 -.216506      3.5     .010
GW   736    1     .125 -.216506      3.5     .125 -.216506      4.0     .010
GW   737    1     .125 -.216506      4.0     .125 -.216506      4.5     .010
GW   738    1     .125 -.216506      4.5     .125 -.216506      5.0     .010
GW   739    1     .125 -.216506      5.0     .125 -.216506      5.5     .010
GW   740    1     .125 -.216506      5.5     .125 -.216506      6.0     .010
GW   741    1     .125 -.216506      6.0     .125 -.216506      6.5     .010
GW   742    1     .125 -.216506      6.5     .125 -.216506      7.0     .010  
GW   743    1  .216506    -.125       .5  .216506    -.125      1.0     .010
GW   744    1  .216506    -.125      1.0  .216506    -.125      1.5     .010
GW   745    1  .216506    -.125      1.5  .216506    -.125      2.0     .010
GW   746    1  .216506    -.125      2.0  .216506    -.125      2.5     .010
GW   747    1  .216506    -.125      2.5  .216506    -.125      3.0     .010
GW   748    1  .216506    -.125      3.0  .216506    -.125      3.5     .010
GW   749    1  .216506    -.125      3.5  .216506    -.125      4.0     .010
GW   750    1  .216506    -.125      4.0  .216506    -.125      4.5     .010
GW   751    1  .216506    -.125      4.5  .216506    -.125      5.0     .010
GW   752    1  .216506    -.125      5.0  .216506    -.125      5.5     .010
GW   753    1  .216506    -.125      5.5  .216506    -.125      6.0     .010
GW   754    1  .216506    -.125      6.0  .216506    -.125      6.5     .010
GW   755    1  .216506    -.125      6.5  .216506    -.125      7.0     .010  
GW   756    1      .25       .0       .5  .216506     .125       .5     .010
GW   757    1  .216506     .125       .5     .125  .216506       .5     .010
GW   758    1     .125  .216506       .5       .0      .25       .5     .010
GW   759    1       .0      .25       .5    -.125  .216506       .5     .010
GW   760    1    -.125  .216506       .5 -.216506     .125       .5     .010
GW   761    1 -.216506     .125       .5     -.25       .0       .5     .010
GW   762    1     -.25       .0       .5 -.216506    -.125       .5     .010
GW   763    1 -.216506    -.125       .5    -.125 -.216506       .5     .010
GW   764    1    -.125 -.216506       .5       .0     -.25       .5     .010
GW   765    1       .0     -.25       .5     .125 -.216506       .5     .010
GW   766    1     .125 -.216506       .5  .216506    -.125       .5     .010
GW   767    1  .216506    -.125       .5      .25       .0       .5     .010
GW   768    1      .25       .0      1.0  .216506     .125      1.0     .010
GW   769    1  .216506     .125      1.0     .125  .216506      1.0     .010
GW   770    1     .125  .216506      1.0       .0      .25      1.0     .010
GW   771    1       .0      .25      1.0    -.125  .216506      1.0     .010
GW   772    1    -.125  .216506      1.0 -.216506     .125      1.0     .010
GW   773    1 -.216506     .125      1.0     -.25       .0      1.0     .010
GW   774    1     -.25       .0      1.0 -.216506    -.125      1.0     .010
GW   775    1 -.216506    -.125      1.0    -.125 -.216506      1.0     .010
GW   776    1    -.125 -.216506      1.0       .0     -.25      1.0     .010
GW   777    1       .0     -.25      1.0     .125 -.216506      1.0     .010
GW   778    1     .125 -.216506      1.0  .216506    -.125      1.0     .010
GW   779    1  .216506    -.125      1.0      .25       .0      1.0     .010
GW   780    1      .25       .0      1.5  .216506     .125      1.5     .010
GW   781    1  .216506     .125      1.5     .125  .216506      1.5     .010
GW   782    1     .125  .216506      1.5       .0      .25      1.5     .010
GW   783    1       .0      .25      1.5    -.125  .216506      1.5     .010
GW   784    1    -.125  .216506      1.5 -.216506     .125      1.5     .010
GW   785    1 -.216506     .125      1.5     -.25       .0      1.5     .010
GW   786    1     -.25       .0      1.5 -.216506    -.125      1.5     .010
GW   787    1 -.216506    -.125      1.5    -.125 -.216506      1.5     .010
GW   788    1    -.125 -.216506      1.5       .0     -.25      1.5     .010
GW   789    1       .0     -.25      1.5     .125 -.216506      1.5     .010
GW   790    1     .125 -.216506      1.5  .216506    -.125      1.5     .010
GW   791    1  .216506    -.125      1.5      .25       .0      1.5     .010
GW   792    1      .25       .0      2.0  .216506     .125      2.0     .010
GW   793    1  .216506     .125      2.0     .125  .216506      2.0     .010
GW   794    1     .125  .216506      2.0       .0      .25      2.0     .010
GW   795    1       .0      .25      2.0    -.125  .216506      2.0     .010
GW   796    1    -.125  .216506      2.0 -.216506     .125      2.0     .010
GW   797    1 -.216506     .125      2.0     -.25       .0      2.0     .010
GW   798    1     -.25       .0      2.0 -.216506    -.125      2.0     .010
GW   799    1 -.216506    -.125      2.0    -.125 -.216506      2.0     .010
GW   800    1    -.125 -.216506      2.0       .0     -.25      2.0     .010
GW   801    1       .0     -.25      2.0     .125 -.216506      2.0     .010
GW   802    1     .125 -.216506      2.0  .216506    -.125      2.0     .010
GW   803    1  .216506    -.125      2.0      .25       .0      2.0     .010
GW   804    1      .25       .0      2.5  .216506     .125      2.5     .010
GW   805    1  .216506     .125      2.5     .125  .216506      2.5     .010
GW   806    1     .125  .216506      2.5       .0      .25      2.5     .010
GW   807    1       .0      .25      2.5    -.125  .216506      2.5     .010
GW   808    1    -.125  .216506      2.5 -.216506     .125      2.5     .010
GW   809    1 -.216506     .125      2.5     -.25       .0      2.5     .010
GW   810    1     -.25       .0      2.5 -.216506    -.125      2.5     .010
GW   811    1 -.216506    -.125      2.5    -.125 -.216506      2.5     .010
GW   812    1    -.125 -.216506      2.5       .0     -.25      2.5     .010
GW   813    1       .0     -.25      2.5     .125 -.216506      2.5     .010
GW   814    1     .125 -.216506      2.5  .216506    -.125      2.5     .010
GW   815    1  .216506    -.125      2.5      .25       .0      2.5     .010
GW   816    1      .25       .0      3.0  .216506     .125      3.0     .010
GW   817    1  .216506     .125      3.0     .125  .216506      3.0     .010
GW   818    1     .125  .216506      3.0       .0      .25      3.0     .010
GW   819    1       .0      .25      3.0    -.125  .216506      3.0     .010
GW   820    1    -.125  .216506      3.0 -.216506     .125      3.0     .010
GW   821    1 -.216506     .125      3.0     -.25       .0      3.0     .010
GW   822    1     -.25       .0      3.0 -.216506    -.125      3.0     .010
GW   823    1 -.216506    -.125      3.0    -.125 -.216506      3.0     .010
GW   824    1    -.125 -.216506      3.0       .0     -.25      3.0     .010
GW   825    1       .0     -.25      3.0     .125 -.216506      3.0     .010
GW   826    1     .125 -.216506      3.0  .216506    -.125      3.0     .010
GW   827    1  .216506    -.125      3.0      .25       .0      3.0     .010
GW   828    1      .25       .0      3.5  .216506     .125      3.5     .010
GW   829    1  .216506     .125      3.5     .125  .216506      3.5     .010
GW   830    1     .125  .216506      3.5       .0      .25      3.5     .010
GW   831    1       .0      .25      3.5    -.125  .216506      3.5     .010
GW   832    1    -.125  .216506      3.5 -.216506     .125      3.5     .010
GW   833    1 -.216506     .125      3.5     -.25       .0      3.5     .010
GW   834    1     -.25       .0      3.5 -.216506    -.125      3.5     .010
GW   835    1 -.216506    -.125      3.5    -.125 -.216506      3.5     .010
GW   836    1    -.125 -.216506      3.5       .0     -.25      3.5     .010
GW   837    1       .0     -.25      3.5     .125 -.216506      3.5     .010
GW   838    1     .125 -.216506      3.5  .216506    -.125      3.5     .010
GW   839    1  .216506    -.125      3.5      .25       .0      3.5     .010
GW   840    1      .25       .0      4.0  .216506     .125      4.0     .010
GW   841    1  .216506     .125      4.0     .125  .216506      4.0     .010
GW   842    1     .125  .216506      4.0       .0      .25      4.0     .010
GW   843    1       .0      .25      4.0    -.125  .216506      4.0     .010
GW   844    1    -.125  .216506      4.0 -.216506     .125      4.0     .010
GW   845    1 -.216506     .125      4.0     -.25       .0      4.0     .010
GW   846    1     -.25       .0      4.0 -.216506    -.125      4.0     .010
GW   847    1 -.216506    -.125      4.0    -.125 -.216506      4.0     .010
GW   848    1    -.125 -.216506      4.0       .0     -.25      4.0     .010
GW   849    1       .0     -.25      4.0     .125 -.216506      4.0     .010
GW   850    1     .125 -.216506      4.0  .216506    -.125      4.0     .010
GW   851    1  .216506    -.125      4.0      .25       .0      4.0     .010
GW   852    1      .25       .0      4.5  .216506     .125      4.5     .010
GW   853    1  .216506     .125      4.5     .125  .216506      4.5     .010
GW   854    1     .125  .216506      4.5       .0      .25      4.5     .010
GW   855    1       .0      .25      4.5    -.125  .216506      4.5     .010
GW   856    1    -.125  .216506      4.5 -.216506     .125      4.5     .010
GW   857    1 -.216506     .125      4.5     -.25       .0      4.5     .010
GW   858    1     -.25       .0      4.5 -.216506    -.125      4.5     .010
GW   859    1 -.216506    -.125      4.5    -.125 -.216506      4.5     .010
GW   860    1    -.125 -.216506      4.5       .0     -.25      4.5     .010
GW   861    1       .0     -.25      4.5     .125 -.216506      4.5     .010
GW   862    1     .125 -.216506      4.5  .216506    -.125      4.5     .010
GW   863    1  .216506    -.125      4.5      .25       .0      4.5     .010
GW   864    1      .25       .0      5.0  .216506     .125      5.0     .010
GW   865    1  .216506     .125      5.0     .125  .216506      5.0     .010
GW   866    1     .125  .216506      5.0       .0      .25      5.0     .010
GW   867    1       .0      .25      5.0    -.125  .216506      5.0     .010
GW   868    1    -.125  .216506      5.0 -.216506     .125      5.0     .010
GW   869    1 -.216506     .125      5.0     -.25       .0      5.0     .010
GW   870    1     -.25       .0      5.0 -.216506    -.125      5.0     .010
GW   871    1 -.216506    -.125      5.0    -.125 -.216506      5.0     .010
GW   872    1    -.125 -.216506      5.0       .0     -.25      5.0     .010